functions/OneTimeScripts/IEEE 123 Single Phase - Feeder models (with Vreg and Cap)/IEEE123_1P_4VR_4C_DG10/IEEE123_1P_VR_C_OpenDSS_DG10/ieee123_VLN_Node.Txt

LINE-GROUND and LINE-LINE VOLTAGES BY BUS & NODE

Bus  Node    VLN (kV)   Angle      pu     Base kV    Node-Node   VLL (kV)  Angle      pu

150  1          2.4 /_    0.0   0.99926     4.160
149  1            0 /_    0.0         0     4.160
1 .. 1            0 /_    0.0         0     4.160
2 .. 1            0 /_    0.0         0     4.160
3 .. 1            0 /_    0.0         0     4.160
7 .. 1            0 /_    0.0         0     4.160
4 .. 1            0 /_    0.0         0     4.160
5 .. 1            0 /_    0.0         0     4.160
6 .. 1            0 /_    0.0         0     4.160
8 .. 1            0 /_    0.0         0     4.160
12 . 1            0 /_    0.0         0     4.160
9 .. 1            0 /_    0.0         0     4.160
13 . 1            0 /_    0.0         0     4.160
9R . 1            0 /_    0.0         0     4.160
14 . 1            0 /_    0.0         0     4.160
34 . 1            0 /_    0.0         0     4.160
18 . 1            0 /_    0.0         0     4.160
11 . 1            0 /_    0.0         0     4.160
10 . 1            0 /_    0.0         0     4.160
15 . 1            0 /_    0.0         0     4.160
16 . 1            0 /_    0.0         0     4.160
17 . 1            0 /_    0.0         0     4.160
19 . 1            0 /_    0.0         0     4.160
21 . 1            0 /_    0.0         0     4.160
20 . 1            0 /_    0.0         0     4.160
22 . 1            0 /_    0.0         0     4.160
23 . 1            0 /_    0.0         0     4.160
24 . 1            0 /_    0.0         0     4.160
25 . 1            0 /_    0.0         0     4.160
25R  1            0 /_    0.0         0     4.160
26 . 1            0 /_    0.0         0     4.160
28 . 1            0 /_    0.0         0     4.160
27 . 1            0 /_    0.0         0     4.160
31 . 1            0 /_    0.0         0     4.160
33 . 1            0 /_    0.0         0     4.160
29 . 1            0 /_    0.0         0     4.160
30 . 1            0 /_    0.0         0     4.160
250  1            0 /_    0.0         0     4.160
32 . 1            0 /_    0.0         0     4.160
35 . 1            0 /_    0.0         0     4.160
36 . 1            0 /_    0.0         0     4.160
40 . 1            0 /_    0.0         0     4.160
37 . 1            0 /_    0.0         0     4.160
38 . 1            0 /_    0.0         0     4.160
39 . 1            0 /_    0.0         0     4.160
41 . 1            0 /_    0.0         0     4.160
42 . 1            0 /_    0.0         0     4.160
43 . 1            0 /_    0.0         0     4.160
44 . 1            0 /_    0.0         0     4.160
45 . 1            0 /_    0.0         0     4.160
47 . 1            0 /_    0.0         0     4.160
46 . 1            0 /_    0.0         0     4.160
48 . 1            0 /_    0.0         0     4.160
49 . 1            0 /_    0.0         0     4.160
50 . 1            0 /_    0.0         0     4.160
51 . 1            0 /_    0.0         0     4.160
151  1            0 /_    0.0         0     4.160
52 . 1            0 /_    0.0         0     4.160
53 . 1            0 /_    0.0         0     4.160
54 . 1            0 /_    0.0         0     4.160
55 . 1            0 /_    0.0         0     4.160
57 . 1            0 /_    0.0         0     4.160
56 . 1            0 /_    0.0         0     4.160
58 . 1            0 /_    0.0         0     4.160
60 . 1            0 /_    0.0         0     4.160
59 . 1            0 /_    0.0         0     4.160
61 . 1            0 /_    0.0         0     4.160
62 . 1            0 /_    0.0         0     4.160
63 . 1            0 /_    0.0         0     4.160
64 . 1            0 /_    0.0         0     4.160
65 . 1            0 /_    0.0         0     4.160
66 . 1            0 /_    0.0         0     4.160
67 . 1            0 /_    0.0         0     4.160
68 . 1            0 /_    0.0         0     4.160
72 . 1            0 /_    0.0         0     4.160
97 . 1            0 /_    0.0         0     4.160
69 . 1            0 /_    0.0         0     4.160
70 . 1            0 /_    0.0         0     4.160
71 . 1            0 /_    0.0         0     4.160
73 . 1            0 /_    0.0         0     4.160
76 . 1            0 /_    0.0         0     4.160
74 . 1            0 /_    0.0         0     4.160
75 . 1            0 /_    0.0         0     4.160
77 . 1            0 /_    0.0         0     4.160
86 . 1            0 /_    0.0         0     4.160
78 . 1            0 /_    0.0         0     4.160
79 . 1            0 /_    0.0         0     4.160
80 . 1            0 /_    0.0         0     4.160
81 . 1            0 /_    0.0         0     4.160
82 . 1            0 /_    0.0         0     4.160
84 . 1            0 /_    0.0         0     4.160
83 . 1            0 /_    0.0         0     4.160
85 . 1            0 /_    0.0         0     4.160
87 . 1            0 /_    0.0         0     4.160
88 . 1            0 /_    0.0         0     4.160
89 . 1            0 /_    0.0         0     4.160
90 . 1            0 /_    0.0         0     4.160
91 . 1            0 /_    0.0         0     4.160
92 . 1            0 /_    0.0         0     4.160
93 . 1            0 /_    0.0         0     4.160
94 . 1            0 /_    0.0         0     4.160
95 . 1            0 /_    0.0         0     4.160
96 . 1            0 /_    0.0         0     4.160
98 . 1            0 /_    0.0         0     4.160
99 . 1            0 /_    0.0         0     4.160
100  1            0 /_    0.0         0     4.160
450  1            0 /_    0.0         0     4.160
197  1            0 /_    0.0         0     4.160
101  1            0 /_    0.0         0     4.160
102  1            0 /_    0.0         0     4.160
105  1            0 /_    0.0         0     4.160
103  1            0 /_    0.0         0     4.160
104  1            0 /_    0.0         0     4.160
106  1            0 /_    0.0         0     4.160
108  1            0 /_    0.0         0     4.160
107  1            0 /_    0.0         0     4.160
109  1            0 /_    0.0         0     4.160
300  1            0 /_    0.0         0     4.160
110  1            0 /_    0.0         0     4.160
111  1            0 /_    0.0         0     4.160
112  1            0 /_    0.0         0     4.160
113  1            0 /_    0.0         0     4.160
114  1            0 /_    0.0         0     4.160
135  1            0 /_    0.0         0     4.160
152  1            0 /_    0.0         0     4.160
160R 1            0 /_    0.0         0     4.160
150R 1            0 /_    0.0         0     4.160
160  1            0 /_    0.0         0     4.160
610  1            0 /_    0.0         0     4.160
